tests/data/power_flow/dummy-test-batch-shunt/input.json
{
  "attributes": {},
  "data": {
    "asym_load": [
      {
        "id": 8,
        "node": 3,
        "p_specified": [
          166666.66666666666,
          166666.66666666666,
          166666.66666666666
        ],
        "q_specified": [
          0,
          0,
          0
        ],
        "status": 1,
        "type": 1
      }
    ],
    "line": [
      {
        "c0": 0,
        "c1": 0,
        "from_node": 1,
        "from_status": 1,
        "id": 4,
        "r0": 10,
        "r1": 10,
        "tan0": 0,
        "tan1": 0,
        "to_node": 2,
        "to_status": 1,
        "x0": 0,
        "x1": 0
      }
    ],
    "link": [
      {
        "from_node": 2,
        "from_status": 1,
        "id": 5,
        "to_node": 3,
        "to_status": 1
      }
    ],
    "node": [
      {
        "id": 1,
        "u_rated": 10000
      },
      {
        "id": 2,
        "u_rated": 10000
      },
      {
        "id": 3,
        "u_rated": 10000
      }
    ],
    "shunt": [
      {
        "b0": 0,
        "b1": 0,
        "g0": 0.015,
        "g1": 0.015,
        "id": 9,
        "node": 3,
        "status": 1
      }
    ],
    "source": [
      {
        "id": 6,
        "node": 1,
        "sk": 1000000000000,
        "status": 1,
        "u_ref": 1.05
      },
      {
        "id": 10,
        "node": 3,
        "sk": 1000000000000,
        "status": 0,
        "u_ref": 1.05
      }
    ],
    "sym_load": [
      {
        "id": 7,
        "node": 3,
        "p_specified": 500000,
        "q_specified": 0,
        "status": 1,
        "type": 1
      }
    ]
  },
  "is_batch": false,
  "type": "input",
  "version": "1.0"
}